case_ny2bus_v3.m
function mpc = case_ny2bus_v3
%CASE_NY2BUS_V3

%% MATPOWER Case Format : Version 2
mpc.version = '2';

%%-----  Power Flow Data  -----%%
%% system MVA base
mpc.baseMVA = 100;

%% bus data
%	bus_i	type	Pd          Qd	Gs	Bs	area	Vm	Va	baseKV	zone	Vmax	Vmin
mpc.bus = [
	1       3       9399.75311	0	0	0	1       1	0	765     1       1.1     0.9;
	2       1       24568.7584	0	0	0	1       1	0	765     2       1.1     0.9;
];

%% generator data
%	bus	Pg	Qg	Qmax	Qmin	Vg	mBase	status	Pmax	Pmin	Pc1	Pc2	Qc1min	Qc1max	Qc2min	Qc2max	ramp_agc	ramp_10	ramp_30	ramp_q	apf
mpc.gen = [
	2	2.7	0	1.35	-1.35	1	100	1	2.7	0.73874669	0	0	0	0	0	0	0	0	0	0	0;
	2	2.5	0	1.25	-1.25	1	100	1	2.5	0.684024713	0	0	0	0	0	0	0	0	0	0	0;
	2	3.5	0	1.75	-1.75	1	100	1	3.5	1.08828155	0	0	0	0	0	0	0	0	0	0	0;
	2	1	0	0.5	-0.5	1	100	1	1	0	0	0	0	0	0	0	0	0	0	0	0;
	2	2	0	0	0	1.02	3	1	2	0	0	0	0	0	0	0	0	0	0	0	0;
	2	0.9	0	0.45	-0.45	1	100	1	0.9	0.059329309	0	0	0	0	0	0	0	0	0	0	0;
	2	21.6	0	10.8	-10.8	1	100	1	21.6	6.71625184	0	0	0	0	0	0	0	0	0	0	0;
	2	3.2	0	0	0	1.01	3.6	1	3.2	0	0	0	0	0	0	0	0	0	0	0	0;
	2	2	0	1	-1	1	100	1	2	0.131842908	0	0	0	0	0	0	0	0	0	0	0;
	2	21.6	0	10.8	-10.8	1	100	1	21.6	6.71625184	0	0	0	0	0	0	0	0	0	0	0;
	1	7.5	0	3.75	-3.75	1	100	1	7.5	0	0	0	0	0	0	0	0	0	0	0	0;
	2	0	98.76	283.6	-88.23	1.03	690	1	621	151.340374	0	0	0	0	0	0	0	0	0	0	0;
	2	3.46319343	98.78	277.2	-41.34	1.03	690	1	621	0	0	0	0	0	0	0	0	0	0	0	0;
	2	239.4	101.1	101.1	-39.07	1.04	281.6	1	239.4	92.6709677	0	0	0	0	0	0	0	0	0	0	0;
	2	147.1	88.3	88.3	-32.05	1.04	173	1	147.1	65.0405306	0	0	0	0	0	0	0	0	0	0	0;
	2	73.5	50.1	50.1	-15.44	1.04	70.6	1	73.5	34.453125	0	0	0	0	0	0	0	0	0	0	0;
	2	72	49.8	49.8	-13.79	1.04	70.6	1	72	35.0081037	0	0	0	0	0	0	0	0	0	0	0;
	2	9.2	0	4.6	-4.6	1	100	1	9.2	2.8632904	0	0	0	0	0	0	0	0	0	0	0;
	2	0	0	0	0	1.04	3.44	1	5.4	2	0	0	0	0	0	0	0	0	0	0	0;
	2	0	0	0	0	1.04	3.44	1	5.4	2	0	0	0	0	0	0	0	0	0	0	0;
	2	5.5	-2	1	-1	1.02	3	1	5.5	0	0	0	0	0	0	0	0	0	0	0	0;
	2	5.5	-2	1	-1	1.02	3	1	5.5	0	0	0	0	0	0	0	0	0	0	0	0;
	2	5.1	0	2.55	-2.55	1	100	1	5.1	0	0	0	0	0	0	0	0	0	0	0	0;
	2	5.1	0	2.55	-2.55	1	100	1	5.1	0	0	0	0	0	0	0	0	0	0	0	0;
	2	5	0	2.5	-2.5	1	100	1	5	0	0	0	0	0	0	0	0	0	0	0	0;
	1	25	0	12.5	-12.5	1	100	1	25	0	0	0	0	0	0	0	0	0	0	0	0;
	2	0	97.8	57.3	-15	1.04	81	1	156.2	47.831579	0	0	0	0	0	0	0	0	0	0	0;
	2	200	96.58	74.5	-7.7	1.04	100	1	200	65.2406417	0	0	0	0	0	0	0	0	0	0	0;
	2	0	0	44	-34	1.03	56	1	31.8	0	0	0	0	0	0	0	0	0	0	0	0;
	2	0	0	44	-34	1.03	56	1	37.8	0	0	0	0	0	0	0	0	0	0	0	0;
	2	0	0	10	-10	1	100	1	20	6.2187517	0	0	0	0	0	0	0	0	0	0	0;
	2	0	0	10	-10	1	100	1	20	6.2187517	0	0	0	0	0	0	0	0	0	0	0;
	2	20	0	10	-10	1	100	1	20	6.2187517	0	0	0	0	0	0	0	0	0	0	0;
	2	0	23.67	45.2	-26.8	1.05	92	1	60.3	0	0	0	0	0	0	0	0	0	0	0	0;
	2	20	0	10	-10	1	100	1	20	6.2187517	0	0	0	0	0	0	0	0	0	0	0;
	2	20	0	10	-10	1	100	1	20	6.2187517	0	0	0	0	0	0	0	0	0	0	0;
	2	20	0	10	-10	1	100	1	20	6.2187517	0	0	0	0	0	0	0	0	0	0	0;
	2	20	0	10	-10	1	100	1	20	6.2187517	0	0	0	0	0	0	0	0	0	0	0;
	2	0	24.42	47.6	-22.4	1.05	92	1	70.8	60	0	0	0	0	0	0	0	0	0	0	0;
	2	0	0	45.9	-25.5	1	92	1	66	60	0	0	0	0	0	0	0	0	0	0	0;
	2	20	0	10	-10	1	100	1	20	6.2187517	0	0	0	0	0	0	0	0	0	0	0;
	2	20	0	10	-10	1	100	1	20	6.2187517	0	0	0	0	0	0	0	0	0	0	0;
	2	20	0	10	-10	1	100	1	20	6.2187517	0	0	0	0	0	0	0	0	0	0	0;
	2	20	0	10	-10	1	100	1	20	6.2187517	0	0	0	0	0	0	0	0	0	0	0;
	2	0	24.63	48	-21.6	1.05	92	1	72.7	60	0	0	0	0	0	0	0	0	0	0	0;
	2	20	0	10	-10	1	100	1	20	6.2187517	0	0	0	0	0	0	0	0	0	0	0;
	2	20	0	10	-10	1	100	1	20	6.2187517	0	0	0	0	0	0	0	0	0	0	0;
	2	20	0	10	-10	1	100	1	20	6.2187517	0	0	0	0	0	0	0	0	0	0	0;
	2	20	0	10	-10	1	100	1	20	6.2187517	0	0	0	0	0	0	0	0	0	0	0;
	2	0	23.96	50	-22.72	1.05	92	1	65.4	60	0	0	0	0	0	0	0	0	0	0	0;
	2	20	0	10	-10	1	100	1	20	6.2187517	0	0	0	0	0	0	0	0	0	0	0;
	2	20	0	10	-10	1	100	1	20	6.2187517	0	0	0	0	0	0	0	0	0	0	0;
	2	20	0	10	-10	1	100	1	20	6.2187517	0	0	0	0	0	0	0	0	0	0	0;
	2	20	0	10	-10	1	100	1	20	6.2187517	0	0	0	0	0	0	0	0	0	0	0;
	2	0	24.22	47.6	-22.12	1.05	92	1	67.9	60	0	0	0	0	0	0	0	0	0	0	0;
	2	0	0	11	-11	1	100	1	22	6.84062687	0	0	0	0	0	0	0	0	0	0	0;
	2	0	0	11	-11	1	100	1	22	6.84062687	0	0	0	0	0	0	0	0	0	0	0;
	2	0	0	11	-11	1	100	1	22	6.84062687	0	0	0	0	0	0	0	0	0	0	0;
	2	0	23.66	44.8	-24.4	1.05	118.4	1	74.8	54.8	0	0	0	0	0	0	0	0	0	0	0;
	2	0	0	0.4	-0.4	1	100	0	0.8	0.052737163	0	0	0	0	0	0	0	0	0	0	0;
	2	0	0	0.4	-0.4	1	100	0	0.8	0.052737163	0	0	0	0	0	0	0	0	0	0	0;
	2	0	0	11	-11	1	100	1	22	6.84062687	0	0	0	0	0	0	0	0	0	0	0;
	2	0	0	11	-11	1	100	1	22	6.84062687	0	0	0	0	0	0	0	0	0	0	0;
	2	0	0	11	-11	1	100	1	22	6.84062687	0	0	0	0	0	0	0	0	0	0	0;
	2	0	23.75	45.3	-24.5	1.05	118.4	1	70.9	54.8	0	0	0	0	0	0	0	0	0	0	0;
	2	0	0	11	-11	1	100	1	22	6.84062687	0	0	0	0	0	0	0	0	0	0	0;
	2	0	0	11	-11	1	100	1	22	6.84062687	0	0	0	0	0	0	0	0	0	0	0;
	2	0	0	11	-11	1	100	1	22	6.84062687	0	0	0	0	0	0	0	0	0	0	0;
	2	0	23.62	46.8	-24.8	1.05	118.4	1	69.1	54.8	0	0	0	0	0	0	0	0	0	0	0;
	2	0	0	11	-11	1	100	1	22	6.84062687	0	0	0	0	0	0	0	0	0	0	0;
	2	0	0	11	-11	1	100	1	22	6.84062687	0	0	0	0	0	0	0	0	0	0	0;
	2	0	0	11	-11	1	100	1	22	6.84062687	0	0	0	0	0	0	0	0	0	0	0;
	2	0	23.6	46.8	-24.8	1.05	118.4	1	68.9	54.8	0	0	0	0	0	0	0	0	0	0	0;
	2	16	0	8	-8	1	100	1	16	3.40987979	0	0	0	0	0	0	0	0	0	0	0;
	2	0	11.31	58	-40	1.04	93	1	72.4	0	0	0	0	0	0	0	0	0	0	0	0;
	2	53	0	26.5	-26.5	1	100	1	53	16.479692	0	0	0	0	0	0	0	0	0	0	0;
	2	0	12.03	58	-40	1.04	93	1	70.7	57	0	0	0	0	0	0	0	0	0	0	0;
	2	0	0	58	-40	1.02	93	1	68.4	57	0	0	0	0	0	0	0	0	0	0	0;
	2	0	0	58	-40	1.02	93	1	66.8	0	0	0	0	0	0	0	0	0	0	0	0;
	2	0	0	58	-40	1.02	93	1	65	0	0	0	0	0	0	0	0	0	0	0	0;
	2	0	0	58	-40	1.02	93	1	67	0	0	0	0	0	0	0	0	0	0	0	0;
	2	0	0	47.9	-27.2	1	92	1	66.5	60	0	0	0	0	0	0	0	0	0	0	0;
	2	0	0	0.45	-0.45	1	100	0	0.9	0.059329309	0	0	0	0	0	0	0	0	0	0	0;
	2	0	0	0.45	-0.45	1	100	0	0.9	0.059329309	0	0	0	0	0	0	0	0	0	0	0;
	2	2.74147321	0	10	-10	1	100	1	20	6.2187517	0	0	0	0	0	0	0	0	0	0	0;
	2	0	0	10	-10	1	100	1	20	6.2187517	0	0	0	0	0	0	0	0	0	0	0;
	2	20	0	10	-10	1	100	1	20	6.2187517	0	0	0	0	0	0	0	0	0	0	0;
	2	0	23.56	50	-22.72	1.05	92	1	61.1	0	0	0	0	0	0	0	0	0	0	0	0;
	2	170	1.41	47.4	-52.1	1.04	213	1	170	0	0	0	0	0	0	0	0	0	0	0	0;
	2	0	0	9.3	-9.3	1	100	1	18.6	5.78343908	0	0	0	0	0	0	0	0	0	0	0;
	2	0	0	12.5	-12.5	1	100	1	25	7.77343962	0	0	0	0	0	0	0	0	0	0	0;
	2	0	0	21.45	-21.45	1	100	1	42.9	13.3392224	0	0	0	0	0	0	0	0	0	0	0;
	2	80	0	40	-40	1	100	1	80	17.049399	0	0	0	0	0	0	0	0	0	0	0;
	2	17.1	0	8.55	-8.55	1	100	1	17.1	5.3170327	0	0	0	0	0	0	0	0	0	0	0;
	2	59.7	31.71	35	0	1.02	65	1	59.7	0	0	0	0	0	0	0	0	0	0	0	0;
	2	0	37.79	49	-11.55	1.04	100	1	184.6	0	0	0	0	0	0	0	0	0	0	0	0;
	2	180	52.84	98	-61.5	1.05	208	1	180	36.3636364	0	0	0	0	0	0	0	0	0	0	0;
	2	180	66.4	98	-61.5	1.05	208	1	180	36.3881402	0	0	0	0	0	0	0	0	0	0	0;
	2	0	0	0.2	-0.2	1	100	0	0.4	0.026368582	0	0	0	0	0	0	0	0	0	0	0;
	2	0	0	0.4	-0.4	1	100	0	0.8	0.052737163	0	0	0	0	0	0	0	0	0	0	0;
	2	0	0	0.4	-0.4	1	100	0	0.8	0.052737163	0	0	0	0	0	0	0	0	0	0	0;
	2	0	0	0.4	-0.4	1	100	0	0.8	0.052737163	0	0	0	0	0	0	0	0	0	0	0;
	2	0	0	0.4	-0.4	1	100	0	0.8	0.052737163	0	0	0	0	0	0	0	0	0	0	0;
	2	0	0	0.4	-0.4	1	100	0	0.8	0.052737163	0	0	0	0	0	0	0	0	0	0	0;
	2	0	0	10	0	1.03	21.88	1	19.8	0	0	0	0	0	0	0	0	0	0	0	0;
	2	0	0	10	0	1.03	21.88	1	20.1	0	0	0	0	0	0	0	0	0	0	0	0;
	2	170	0	85	-85	1	100	1	170	41.0323167	0	0	0	0	0	0	0	0	0	0	0;
	2	535.5	57.96	312.7	-176.1	1.04	595	1	535.5	147.818128	0	0	0	0	0	0	0	0	0	0	0;
	2	1299	426.74	495.3	-92.1	1.03	1439	1	1299	386.548522	0	0	0	0	0	0	0	0	0	0	0;
	2	1027	161.53	332.3	-133	1.04	556	1	1027	189.49738	0	0	0	0	0	0	0	0	0	0	0;
	2	0	0	10	-10	1	100	1	20	6.2187517	0	0	0	0	0	0	0	0	0	0	0;
	2	229.144329	100.29	95	-84	1.04	202	1	376.2	73.6362654	0	0	0	0	0	0	0	0	0	0	0;
	2	376	170.3	142.4	-83.6	1.03	202	1	376	69.8916638	0	0	0	0	0	0	0	0	0	0	0;
	2	0	0	7.55	-7.55	1	100	1	15.1	4.69515753	0	0	0	0	0	0	0	0	0	0	0;
	2	19.2	0	9.6	-9.6	1	100	1	19.2	5.97000163	0	0	0	0	0	0	0	0	0	0	0;
	2	31.8	0	15.9	-15.9	1	100	1	31.8	9.8878152	0	0	0	0	0	0	0	0	0	0	0;
	2	31.8	0	15.9	-15.9	1	100	1	31.8	9.8878152	0	0	0	0	0	0	0	0	0	0	0;
	2	0	0	23.25	-23.25	1	100	1	46.5	14.4585977	0	0	0	0	0	0	0	0	0	0	0;
	2	0	0	23.25	-23.25	1	100	1	46.5	14.4585977	0	0	0	0	0	0	0	0	0	0	0;
	2	0	0	23.25	-23.25	1	100	1	46.5	14.4585977	0	0	0	0	0	0	0	0	0	0	0;
	2	0	0	23.25	-23.25	1	100	1	46.5	14.4585977	0	0	0	0	0	0	0	0	0	0	0;
	2	0	0	23.25	-23.25	1	100	1	46.5	14.4585977	0	0	0	0	0	0	0	0	0	0	0;
	2	0	0	23.25	-23.25	1	100	1	46.5	14.4585977	0	0	0	0	0	0	0	0	0	0	0;
	2	249	0	124.5	-124.5	1	100	1	249	53.0662543	0	0	0	0	0	0	0	0	0	0	0;
	2	361.109621	278.4	147.5	-78	1.02	227	1	387	68.9523902	0	0	0	0	0	0	0	0	0	0	0;
	2	400	202.02	122.8	-86	1.05	212	1	400	89.6458987	0	0	0	0	0	0	0	0	0	0	0;
	2	400	208.88	143.4	-80.9	1.05	212	1	400	90.5797101	0	0	0	0	0	0	0	0	0	0	0;
	2	0	0	10	-5	0	21.18	1	87.6	0	0	0	0	0	0	0	0	0	0	0	0;
	2	0	0	10	-5	0	21.18	1	87.6	0	0	0	0	0	0	0	0	0	0	0	0;
	2	0	0	10	-5	0	21.18	1	87.6	0	0	0	0	0	0	0	0	0	0	0	0;
	2	48.9	17.16	20.16	-12.32	1.05	55.4	1	48.9	0	0	0	0	0	0	0	0	0	0	0	0;
	2	48.9	17.16	19.15	-11.7	1.05	55.4	1	48.9	0	0	0	0	0	0	0	0	0	0	0	0;
	2	27	9.69	11.09	-6.78	1.05	28	1	27	0	0	0	0	0	0	0	0	0	0	0	0;
	2	0	0	12.5	-12.5	1	100	1	25	7.77343962	0	0	0	0	0	0	0	0	0	0	0;
	2	0	0	41.9	-4.8	0.99	200	1	55.7	15	0	0	0	0	0	0	0	0	0	0	0;
	2	0	0	11	-11	1	100	1	22	6.84062687	0	0	0	0	0	0	0	0	0	0	0;
	2	0	0	21.45	-21.45	1	100	1	42.9	13.3392224	0	0	0	0	0	0	0	0	0	0	0;
	2	0	15.8	61.5	-44.2	1.03	125	1	121	0	0	0	0	0	0	0	0	0	0	0	0;
	2	40	15.4	15.4	-11	1.03	125	1	40	14.2755175	0	0	0	0	0	0	0	0	0	0	0;
	2	40	18.5	18.5	-13.3	1.03	125	1	40	14.2755175	0	0	0	0	0	0	0	0	0	0	0;
	2	0	35.15	62	-44.5	1.05	125	1	121	0	0	0	0	0	0	0	0	0	0	0	0;
	2	200	0	100	-100	1	100	1	200	48.2733138	0	0	0	0	0	0	0	0	0	0	0;
	2	200	0	100	-100	1	100	1	200	48.2733138	0	0	0	0	0	0	0	0	0	0	0;
	2	250	0	125	-125	1	100	1	250	53.2793718	0	0	0	0	0	0	0	0	0	0	0;
	2	0	0	0	0	1	19.2	1	19.2	17.7116279	0	0	0	0	0	0	0	0	0	0	0;
	2	0	0	0	0	1	38.4	1	24.1	23.7	0	0	0	0	0	0	0	0	0	0	0;
	2	0.5	0	0.25	-0.25	1	100	1	0.5	0.032960727	0	0	0	0	0	0	0	0	0	0	0;
	2	0.5	0	0.25	-0.25	1	100	1	0.5	0.032960727	0	0	0	0	0	0	0	0	0	0	0;
	2	1.1	0	0.55	-0.55	1	100	1	1.1	0.072513599	0	0	0	0	0	0	0	0	0	0	0;
	2	1.5	0	0.75	-0.75	1	100	1	1.5	0.098882181	0	0	0	0	0	0	0	0	0	0	0;
	2	0	0	24	-1.4	1.02	87.5	1	73.4	30	0	0	0	0	0	0	0	0	0	0	0;
	2	0	0	12	-2.02	1.01	87.5	1	68.8	0	0	0	0	0	0	0	0	0	0	0	0;
	2	0	0	16.8	-5.3	1.02	87.5	1	72.7	51	0	0	0	0	0	0	0	0	0	0	0;
	2	0	0	10.55	-10.55	1	100	1	21.1	6.56078304	0	0	0	0	0	0	0	0	0	0	0;
	2	0	0	11	-11	1	100	1	22	6.84062687	0	0	0	0	0	0	0	0	0	0	0;
	2	0	0	21.8	-3.4	0.98	87.5	1	69.6	0	0	0	0	0	0	0	0	0	0	0	0;
	2	200.5	29.84	105.3	-47.31	1	176.47	1	200.5	41.2976313	0	0	0	0	0	0	0	0	0	0	0;
	2	197.5	29.73	108	-61	1	220.59	1	197.5	40	0	0	0	0	0	0	0	0	0	0	0;
	2	0	0	7.6	-4.46	1	21.18	1	134.3	41.4506173	0	0	0	0	0	0	0	0	0	0	0;
	2	0	0	7.6	-4.46	1	21.18	1	134.3	38.8150289	0	0	0	0	0	0	0	0	0	0	0;
	2	0	0	7.6	-4.46	1	21.18	1	134.3	38.8150289	0	0	0	0	0	0	0	0	0	0	0;
	2	0	0	7.6	-4.46	1	21.18	1	134.3	42.2327044	0	0	0	0	0	0	0	0	0	0	0;
	2	0	0	7.6	-4.46	1	21.18	1	134.3	39.2690058	0	0	0	0	0	0	0	0	0	0	0;
	2	0	0	7.6	-4.46	1	21.18	1	134.3	39.7337278	0	0	0	0	0	0	0	0	0	0	0;
	2	0	0	7.6	-4.46	1	21.18	1	134.3	39.5	0	0	0	0	0	0	0	0	0	0	0;
	2	0	0	21.5	-2.98	0.97	41.5	1	161.1	58.0889423	0	0	0	0	0	0	0	0	0	0	0;
	2	0	0	23.4	-4.42	0.97	41.5	1	161.1	61.1772152	0	0	0	0	0	0	0	0	0	0	0;
	2	0	0	23.4	-4.42	0.97	41.5	1	161.1	62.2809278	0	0	0	0	0	0	0	0	0	0	0;
	2	0	0	23	-4.23	0.97	41.5	1	161.1	58.6529126	0	0	0	0	0	0	0	0	0	0	0;
	2	0	0	7.6	-16.8	0.99	71.18	1	60.5	5.65420561	0	0	0	0	0	0	0	0	0	0	0;
	2	0.2	0	0.1	-0.1	1	100	1	0.2	0.013184291	0	0	0	0	0	0	0	0	0	0	0;
	2	0.2	0	0.1	-0.1	1	100	1	0.2	0.013184291	0	0	0	0	0	0	0	0	0	0	0;
	2	0.2	0	0.1	-0.1	1	100	1	0.2	0.013184291	0	0	0	0	0	0	0	0	0	0	0;
	2	5.7	0	2.85	-2.85	1	100	1	5.7	1.77234424	0	0	0	0	0	0	0	0	0	0	0;
	2	107.2	18.06	64.6	-14.51	1	140	1	107.2	20	0	0	0	0	0	0	0	0	0	0	0;
	2	19.559096	11.4	19.6	-20.03	1.01	71.18	1	60.5	5.74003795	0	0	0	0	0	0	0	0	0	0	0;
	2	0.2	0	0.1	-0.1	1	100	1	0.2	0.013184291	0	0	0	0	0	0	0	0	0	0	0;
	2	0.2	0	0.1	-0.1	1	100	1	0.2	0.013184291	0	0	0	0	0	0	0	0	0	0	0;
	2	0.7	0	0.35	-0.35	1	100	1	0.7	0.046145018	0	0	0	0	0	0	0	0	0	0	0;
	2	0	24.73	36.6	-27.23	0.98	140	1	117	20	0	0	0	0	0	0	0	0	0	0	0;
	2	0	26.53	34.1	-17.92	0.98	140	1	115.5	20	0	0	0	0	0	0	0	0	0	0	0;
	2	0	13.75	27	-18	1.02	56	1	55	31.1909263	0	0	0	0	0	0	0	0	0	0	0;
	2	0	13.75	27	-18	1.02	56	1	55	31.7919075	0	0	0	0	0	0	0	0	0	0	0;
	2	60.5	0	30.25	-30.25	1	100	1	60.5	18.8117239	0	0	0	0	0	0	0	0	0	0	0;
	2	60	0	30	-30	1	100	1	60	18.6562551	0	0	0	0	0	0	0	0	0	0	0;
	2	78.6	21.46	37	-17	0.98	88.23	1	78.6	0	0	0	0	0	0	0	0	0	0	0	0;
	2	1.1	0	0.55	-0.55	1	100	1	1.1	0.072513599	0	0	0	0	0	0	0	0	0	0	0;
	2	1.1	0	0.55	-0.55	1	100	1	1.1	0.072513599	0	0	0	0	0	0	0	0	0	0	0;
	2	0	0.96	19.3	-9.3	1	45.8	1	45.8	0	0	0	0	0	0	0	0	0	0	0	0;
	2	0	0.96	5.7	-0.7	1	18	1	45.8	0	0	0	0	0	0	0	0	0	0	0	0;
	2	60	2.89	28.8	-20.05	1.01	67.5	1	60	7.04225352	0	0	0	0	0	0	0	0	0	0	0;
	2	1.3	0	0.65	-0.65	1	100	1	1.3	0.08569789	0	0	0	0	0	0	0	0	0	0	0;
	2	36	-1.87	12.6	-14.81	1	41.2	1	36	0	0	0	0	0	0	0	0	0	0	0	0;
	2	71.1	18.6	3.6	-1.7	0.98	16.2	1	71.1	0	0	0	0	0	0	0	0	0	0	0	0;
	2	0	18.6	7.5	-3.6	0.98	33.7	1	71.1	0	0	0	0	0	0	0	0	0	0	0	0;
	2	0	18.6	7.5	-3.6	0.98	33.7	1	71.1	0	0	0	0	0	0	0	0	0	0	0	0;
	2	0.4	0	0.2	-0.2	1	100	1	0.4	0.026368582	0	0	0	0	0	0	0	0	0	0	0;
	2	0	4.84	20	-20	0.99	71.18	1	60	6.62251656	0	0	0	0	0	0	0	0	0	0	0;
	2	28	0	14	-14	1	100	1	28	8.71436208	0	0	0	0	0	0	0	0	0	0	0;
	2	0	-15.47	127.1	-152.62	1.01	430.1	1	395.7	100	0	0	0	0	0	0	0	0	0	0	0;
...
];

%% branch data
%	fbus	tbus	r	x	b	rateA	rateB	rateC	ratio	angle	status	angmin	angmax
mpc.branch = [
	1	2	0.0003	0.0166	0	2825	2925	3025	1	0	1	-360	360;
];

%%-----  OPF Data  -----%%
%% generator cost data
%	1	startup	shutdown	n	x1	y1	...	xn	yn
%	2	startup	shutdown	n	c(n-1)	...	c0
mpc.gencost = [
	2	0	0	2	2	0;
	2	0	0	2	2	0;
	2	0	0	2	50.4478186	0;
	2	0	0	2	2	0;
	2	0	0	2	2	0;
	2	0	0	2	2	0;
	2	0	0	2	2	0;
	2	0	0	2	2	0;
	2	0	0	2	54.8277349	0;
	2	0	0	2	2	0;
	2	0	0	2	2	0;
	2	0	0	2	61.4832442	0;
	2	0	0	2	58.4050802	0;
	2	0	0	2	36.9913803	0;
	2	0	0	2	38.3483924	0;
	2	0	0	2	50.2508292	0;
	2	0	0	2	43.0001421	0;
	2	0	0	2	2	0;
	2	0	0	2	253.034792	0;
	2	0	0	2	253.034792	0;
	2	0	0	2	2	0;
	2	0	0	2	2	0;
	2	0	0	2	2	0;
	2	0	0	2	2	0;
	2	0	0	2	2	0;
	2	0	0	2	2	0;
	2	0	0	2	61.4585246	0;
	2	0	0	2	60.2709814	0;
	2	0	0	2	68.0316186	0;
	2	0	0	2	68.0316186	0;
	2	0	0	2	64.8657902	0;
	2	0	0	2	64.8657902	0;
	2	0	0	2	2	0;
	2	0	0	2	78.298388	0;
	2	0	0	2	64.8657902	0;
	2	0	0	2	64.8657902	0;
	2	0	0	2	2	0;
	2	0	0	2	2	0;
	2	0	0	2	74.4892755	0;
	2	0	0	2	78.298388	0;
	2	0	0	2	64.8657902	0;
	2	0	0	2	64.8657902	0;
	2	0	0	2	2	0;
	2	0	0	2	2	0;
	2	0	0	2	74.4892755	0;
	2	0	0	2	64.8657902	0;
	2	0	0	2	64.8657902	0;
	2	0	0	2	2	0;
	2	0	0	2	2	0;
	2	0	0	2	78.298388	0;
	2	0	0	2	64.8657902	0;
	2	0	0	2	64.8657902	0;
	2	0	0	2	2	0;
	2	0	0	2	2	0;
	2	0	0	2	74.4892755	0;
	2	0	0	2	65.6170978	0;
	2	0	0	2	65.6170978	0;
	2	0	0	2	65.6170978	0;
	2	0	0	2	75.3480958	0;
	2	0	0	2	54.8277349	0;
	2	0	0	2	54.8277349	0;
	2	0	0	2	65.6170978	0;
	2	0	0	2	65.6170978	0;
	2	0	0	2	65.6170978	0;
	2	0	0	2	75.3480958	0;
	2	0	0	2	65.6170978	0;
	2	0	0	2	65.6170978	0;
	2	0	0	2	65.6170978	0;
	2	0	0	2	75.3480958	0;
	2	0	0	2	65.6170978	0;
	2	0	0	2	65.6170978	0;
	2	0	0	2	65.6170978	0;
	2	0	0	2	75.3480958	0;
	2	0	0	2	54.8277349	0;
	2	0	0	2	75.8700228	0;
	2	0	0	2	52.6614166	0;
	2	0	0	2	76.140067	0;
	2	0	0	2	68.7882603	0;
	2	0	0	2	74.8430747	0;
	2	0	0	2	72.6322444	0;
	2	0	0	2	75.2364554	0;
	2	0	0	2	74.4892755	0;
	2	0	0	2	54.8277349	0;
	2	0	0	2	54.8277349	0;
	2	0	0	2	64.8657902	0;
	2	0	0	2	64.8657902	0;
	2	0	0	2	2	0;
	2	0	0	2	78.298388	0;
	2	0	0	2	42.4821083	0;
	2	0	0	2	65.0102685	0;
	2	0	0	2	67.9147263	0;
	2	0	0	2	62.8147954	0;
	2	0	0	2	54.8277349	0;
	2	0	0	2	2	0;
	2	0	0	2	2	0;
	2	0	0	2	71.7475522	0;
	2	0	0	2	58.9740722	0;
	2	0	0	2	58.7302559	0;
	2	0	0	2	54.8277349	0;
	2	0	0	2	54.8277349	0;
	2	0	0	2	54.8277349	0;
	2	0	0	2	54.8277349	0;
	2	0	0	2	2	0;
	2	0	0	2	2	0;
	2	0	0	2	177.553842	0;
	2	0	0	2	177.553842	0;
	2	0	0	2	47.8457351	0;
	2	0	0	2	42.2596443	0;
	2	0	0	2	2	0;
	2	0	0	2	56.2282701	0;
	2	0	0	2	65.1100723	0;
	2	0	0	2	62.6172158	0;
	2	0	0	2	60.8334402	0;
	2	0	0	2	62.4410739	0;
	2	0	0	2	2	0;
	2	0	0	2	2	0;
	2	0	0	2	2	0;
	2	0	0	2	64.7571713	0;
	2	0	0	2	64.8999081	0;
	2	0	0	2	65.0965853	0;
	2	0	0	2	65.2885049	0;
	2	0	0	2	66.1278946	0;
	2	0	0	2	66.2419698	0;
	2	0	0	2	54.8277349	0;
	2	0	0	2	62.0003068	0;
	2	0	0	2	58.1141057	0;
	2	0	0	2	58.1141057	0;
	2	0	0	2	209.388172	0;
	2	0	0	2	209.388172	0;
	2	0	0	2	209.388172	0;
	2	0	0	2	53.8116368	0;
	2	0	0	2	54.8900381	0;
	2	0	0	2	49.750495	0;
	2	0	0	2	67.9147263	0;
	2	0	0	2	75.7684664	0;
	2	0	0	2	66.4597945	0;
	2	0	0	2	62.9153448	0;
	2	0	0	2	68.0194235	0;
	2	0	0	2	38.501666	0;
	2	0	0	2	38.501666	0;
	2	0	0	2	69.6606283	0;
	2	0	0	2	46.4047003	0;
	2	0	0	2	46.4047003	0;
	2	0	0	2	54.8277349	0;
	2	0	0	2	65.5558762	0;
	2	0	0	2	65.5558762	0;
	2	0	0	2	54.8277349	0;
	2	0	0	2	54.8277349	0;
	2	0	0	2	54.8277349	0;
	2	0	0	2	54.8277349	0;
	2	0	0	2	71.8486573	0;
	2	0	0	2	69.9917279	0;
	2	0	0	2	74.4482662	0;
	2	0	0	2	65.9843879	0;
	2	0	0	2	66.4597945	0;
	2	0	0	2	77.9758784	0;
	2	0	0	2	59.19197	0;
	2	0	0	2	59.19197	0;
	2	0	0	2	68.3049152	0;
	2	0	0	2	68.3049152	0;
	2	0	0	2	68.3049152	0;
	2	0	0	2	68.3049152	0;
	2	0	0	2	68.3049152	0;
	2	0	0	2	68.3049152	0;
	2	0	0	2	68.3049152	0;
	2	0	0	2	65.4661193	0;
	2	0	0	2	91.1624895	0;
	2	0	0	2	91.5772799	0;
	2	0	0	2	92.3501764	0;
	2	0	0	2	183.251763	0;
	2	0	0	2	54.8277349	0;
	2	0	0	2	54.8277349	0;
	2	0	0	2	54.8277349	0;
	2	0	0	2	54.2797067	0;
	2	0	0	2	59.2752801	0;
	2	0	0	2	62.3664123	0;
	2	0	0	2	54.8277349	0;
	2	0	0	2	54.8277349	0;
	2	0	0	2	2	0;
	2	0	0	2	74.2591381	0;
	2	0	0	2	74.2591381	0;
	2	0	0	2	246.56413	0;
	2	0	0	2	243.972471	0;
	2	0	0	2	52.630365	0;
	2	0	0	2	52.1943074	0;
	2	0	0	2	2	0;
	2	0	0	2	54.8277349	0;
	2	0	0	2	54.8277349	0;
	2	0	0	2	63.3664208	0;
	2	0	0	2	145.025815	0;
	2	0	0	2	51.107677	0;
	2	0	0	2	2	0;
	2	0	0	2	54.318104	0;
	2	0	0	2	54.318104	0;
	2	0	0	2	68.0761419	0;
	2	0	0	2	68.0761419	0;
	2	0	0	2	2	0;
	2	0	0	2	61.8691869	0;
	2	0	0	2	2	0;
	2	0	0	2	61.4123253	0;
...
];

%% generator fuel type
mpc.genfuel = {
	'solar';
	'solar';
	'ng';
	'hydro';
	'hydro';
	'biomass';
	'unknown';
	'hydro';
	'ng';
	'unknown';
	'hydro';
	'ng';
	'ng';
	'coal';
	'coal';
	'coal';
	'coal';
	'refuse';
	'oil';
	'oil';
	'hydro';
	'hydro';
	'hydro';
	'hydro';
	'hydro';
	'hydro';
	'ng';
	'ng';
	'ng';
	'ng';
	'ng';
	'ng';
	'unknown';
	'ng';
	'ng';
	'ng';
	'unknown';
	'unknown';
	'ng';
	'ng';
	'ng';
	'ng';
	'unknown';
	'unknown';
	'ng';
	'ng';
	'ng';
	'unknown';
	'unknown';
	'ng';
	'ng';
	'ng';
	'unknown';
	'unknown';
	'ng';
	'ng';
	'ng';
	'ng';
	'ng';
	'ng';
	'ng';
	'ng';
	'ng';
	'ng';
	'ng';
	'ng';
	'ng';
	'ng';
	'ng';
	'ng';
	'ng';
	'ng';
	'ng';
	'ng';
	'ng';
	'ng';
	'ng';
	'ng';
	'ng';
	'ng';
	'ng';
	'ng';
	'ng';
	'ng';
	'ng';
	'ng';
	'unknown';
	'ng';
	'ng';
	'ng';
	'ng';
	'ng';
	'ng';
	'unknown';
	'refuse';
	'ng';
	'ng';
	'ng';
	'ng';
	'ng';
	'ng';
	'ng';
	'unknown';
	'unknown';
	'oil';
	'oil';
	'ng';
	'ng';
	'nuclear';
	'ng';
	'ng';
	'ng';
	'ng';
	'ng';
	'unknown';
	'unknown';
	'unknown';
	'ng';
	'ng';
	'ng';
	'ng';
	'ng';
	'ng';
	'ng';
	'ng';
	'ng';
	'ng';
	'oil';
	'oil';
	'oil';
	'ng';
	'ng';
	'ng';
	'ng';
	'ng';
	'ng';
	'ng';
	'ng';
	'ng';
	'ng';
	'ng';
	'ng';
	'ng';
	'ng';
	'ng';
	'ng';
	'ng';
	'ng';
	'ng';
	'ng';
	'ng';
	'ng';
	'ng';
	'ng';
	'ng';
	'ng';
	'ng';
	'ng';
	'ng';
	'ng';
	'ng';
	'ng';
	'ng';
	'ng';
	'ng';
	'ng';
	'ng';
	'ng';
	'ng';
	'oil';
	'ng';
	'ng';
	'ng';
	'ng';
	'ng';
	'ng';
	'ng';
	'ng';
	'biomass';
	'ng';
	'ng';
	'oil';
	'oil';
	'ng';
	'ng';
	'refuse';
	'ng';
	'ng';
	'ng';
	'ng';
	'ng';
	'unknown';
	'ng';
	'ng';
	'ng';
	'ng';
	'unknown';
	'ng';
	'refuse';
	'ng';
	'ng';
	'ng';
	'ng';
	'oil';
	'ng';
	'ng';
	'refuse';
	'ng';
	'ng';
	'ng';
	'ng';
	'oil';
	'ng';
	'ng';
	'unknown';
	'unknown';
	'unknown';
	'ng';
	'solar';
	'oil';
	'oil';
	'oil';
	'oil';
	'oil';
	'oil';
	'oil';
	'oil';
	'oil';
	'oil';
	'ng';
	'ng';
	'ng';
	'ng';
	'ng';
	'ng';
	'oil';
	'oil';
	'oil';
	'oil';
	'oil';
	'biomass';
	'oil';
	'oil';
	'oil';
	'oil';
	'oil';
	'oil';
	'wind';
	'wind';
	'wind';
	'coal';
	'wind';
	'ng';
	'coal';
	'biomass';
	'hydro';
	'hydro';
	'hydro';
	'hydro';
	'hydro';
	'storage';
	'wind';
	'ng';
	'unknown';
	'ng';
	'ng';
	'unknown';
	'hydro';
	'wind';
	'coal';
	'biomass';
	'biomass';
	'biomass';
	'biomass';
	'biomass';
	'biomass';
	'hydro';
	'biomass';
	'biomass';
	'biomass';
	'biomass';
	'biomass';
	'biomass';
	'biomass';
	'biomass';
	'biomass';
	'biomass';
	'biomass';
	'biomass';
	'hydro';
	'coal';
	'ng';
	'ng';
	'hydro';
	'hydro';
	'ng';
	'ng';
	'ng';
	'ng';
	'coal';
	'coal';
	'coal';
	'hydro';
	'hydro';
	'hydro';
	'ng';
	'ng';
	'ng';
	'ng';
	'ng';
	'hydro';
	'hydro';
	'hydro';
	'hydro';
	'hydro';
	'hydro';
	'hydro';
	'hydro';
	'hydro';
	'hydro';
	'hydro';
	'hydro';
	'hydro';
	'hydro';
	'hydro';
	'hydro';
	'hydro';
	'hydro';
	'hydro';
	'hydro';
	'hydro';
	'hydro';
	'hydro';
	'biomass';
	'hydro';
	'ng';
	'ng';
	'ng';
	'biomass';
	'biomass';
	'biomass';
	'biomass';
	'biomass';
	'biomass';
	'biomass';
	'unknown';
	'coal';
	'coal';
	'coal';
	'coal';
	'biomass';
	'biomass';
	'biomass';
	'biomass';
	'ng';
	'ng';
	'ng';
	'ng';
	'ng';
	'coal';
	'coal';
	'hydro';
	'unknown';
	'ng';
	'ng';
	'hydro';
	'biomass';
	'biomass';
	'biomass';
	'hydro';
	'hydro';
	'ng';
	'coal';
	'ng';
	'ng';
	'coal';
	'biomass';
	'biomass';
	'hydro';
	'hydro';
	'hydro';
	'hydro';
	'refuse';
	'refuse';
	'hydro';
	'hydro';
	'hydro';
	'hydro';
	'hydro';
	'hydro';
	'hydro';
	'hydro';
	'hydro';
	'hydro';
	'hydro';
	'hydro';
	'hydro';
	'hydro';
	'hydro';
	'hydro';
	'hydro';
	'biomass';
	'hydro';
	'hydro';
	'hydro';
	'hydro';
	'hydro';
	'hydro';
	'hydro';
	'hydro';
	'wind';
	'nuclear';
	'nuclear';
	'oil';
	'oil';
	'refuse';
	'coal';
	'ng';
	'ng';
	'hydro';
	'hydro';
	'hydro';
	'wind';
	'ng';
	'ng';
	'ng';
	'ng';
	'ng';
	'ng';
	'ng';
	'ng';
	'ng';
	'unknown';
	'ng';
	'ng';
	'hydro';
	'hydro';
	'hydro';
	'hydro';
	'hydro';
	'hydro';
	'hydro';
	'hydro';
	'hydro';
	'ng';
	'ng';
	'hydro';
	'hydro';
	'biomass';
	'hydro';
	'coal';
	'hydro';
	'hydro';
	'hydro';
	'wind';
	'hydro';
	'hydro';
	'hydro';
	'hydro';
	'hydro';
	'hydro';
	'hydro';
	'hydro';
	'hydro';
	'hydro';
	'hydro';
	'hydro';
	'hydro';
	'hydro';
	'hydro';
	'hydro';
	'hydro';
	'hydro';
	'hydro';
	'hydro';
	'hydro';
	'hydro';
	'hydro';
	'hydro';
	'hydro';
	'hydro';
	'hydro';
	'hydro';
	'hydro';
	'hydro';
	'hydro';
	'ng';
	'ng';
	'hydro';
	'hydro';
	'hydro';
	'biomass';
	'hydro';
	'hydro';
	'hydro';
	'hydro';
	'hydro';
	'hydro';
	'hydro';
	'hydro';
	'hydro';
	'hydro';
	'hydro';
	'hydro';
	'hydro';
	'hydro';
	'hydro';
	'hydro';
	'hydro';
	'hydro';
	'hydro';
	'hydro';
	'hydro';
	'hydro';
	'hydro';
	'hydro';
	'hydro';
	'hydro';
	'hydro';
	'hydro';
	'hydro';
	'hydro';
	'hydro';
	'hydro';
	'hydro';
	'hydro';
	'hydro';
	'hydro';
	'hydro';
	'hydro';
	'hydro';
	'hydro';
	'hydro';
	'hydro';
	'hydro';
	'hydro';
	'hydro';
	'hydro';
	'hydro';
	'hydro';
	'hydro';
	'hydro';
	'hydro';
	'hydro';
	'hydro';
	'hydro';
	'hydro';
	'hydro';
	'hydro';
	'hydro';
	'hydro';
	'hydro';
	'hydro';
	'hydro';
	'hydro';
	'hydro';
	'hydro';
	'hydro';
	'hydro';
	'hydro';
	'hydro';
	'hydro';
	'hydro';
	'hydro';
	'hydro';
	'hydro';
	'hydro';
	'hydro';
	'hydro';
	'hydro';
	'hydro';
	'hydro';
	'hydro';
	'hydro';
	'hydro';
	'hydro';
	'ng';
	'ng';
	'oil';
	'hydro';
	'hydro';
	'unknown';
	'hydro';
	'hydro';
	'hydro';
	'hydro';
	'hydro';
	'hydro';
	'hydro';
	'hydro';
	'hydro';
	'hydro';
	'hydro';
	'hydro';
	'hydro';
	'hydro';
	'hydro';
	'hydro';
	'hydro';
	'hydro';
	'hydro';
	'ng';
	'ng';
	'ng';
	'ng';
	'ng';
	'ng';
	'ng';
	'ng';
	'ng';
	'ng';
	'hydro';
	'ng';
	'ng';
	'ng';
	'hydro';
	'biomass';
	'hydro';
	'hydro';
	'hydro';
	'hydro';
	'hydro';
	'hydro';
	'hydro';
	'hydro';
	'ng';
	'ng';
	'ng';
	'ng';
	'ng';
	'ng';
	'ng';
	'ng';
	'hydro';
	'ng';
	'biomass';
	'hydro';
	'hydro';
	'hydro';
	'hydro';
	'hydro';
	'unknown';
	'unknown';
	'unknown';
	'hydro';
	'hydro';
	'hydro';
	'unknown';
	'hydro';
	'hydro';
	'hydro';
	'wind';
	'hydro';
	'wind';
	'hydro';
	'hydro';
	'hydro';
	'hydro';
	'hydro';
	'hydro';
	'hydro';
	'hydro';
	'hydro';
	'hydro';
	'hydro';
	'hydro';
	'hydro';
	'hydro';
	'hydro';
	'hydro';
	'hydro';
	'hydro';
	'hydro';
	'hydro';
	'hydro';
	'refuse';
	'hydro';
	'hydro';
	'hydro';
	'hydro';
	'biomass';
	'hydro';
	'hydro';
	'hydro';
	'hydro';
	'hydro';
	'hydro';
	'hydro';
	'hydro';
	'hydro';
	'biomass';
	'hydro';
	'hydro';
	'hydro';
	'hydro';
	'hydro';
	'ng';
	'ng';
	'hydro';
	'hydro';
	'ng';
	'ng';
	'wind';
	'biomass';
	'hydro';
	'oil';
	'hydro';
	'hydro';
	'biomass';
	'biomass';
	'biomass';
	'oil';
	'ng';
	'ng';
	'ng';
	'hydro';
	'hydro';
	'hydro';
	'hydro';
	'hydro';
	'hydro';
	'hydro';
	'wind';
	'hydro';
	'ng';
	'ng';
	'hydro';
	'hydro';
	'biomass';
	'biomass';
	'biomass';
	'biomass';
	'biomass';
	'biomass';
	'biomass';
	'biomass';
	'biomass';
	'biomass';
	'biomass';
	'biomass';
	'hydro';
	'hydro';
	'hydro';
	'hydro';
	'hydro';
	'hydro';
	'hydro';
	'hydro';
	'hydro';
	'hydro';
	'hydro';
	'hydro';
	'hydro';
	'hydro';
	'hydro';
	'hydro';
	'hydro';
	'hydro';
	'hydro';
	'hydro';
	'hydro';
	'wind';
	'hydro';
	'hydro';
	'unknown';
	'biomass';
	'biomass';
	'hydro';
	'hydro';
	'hydro';
	'hydro';
	'hydro';
	'hydro';
	'hydro';
	'hydro';
	'hydro';
	'hydro';
	'hydro';
	'hydro';
	'hydro';
	'hydro';
	'hydro';
	'hydro';
	'hydro';
	'wind';
	'ng';
	'ng';
	'ng';
	'hydro';
	'hydro';
	'hydro';
	'hydro';
	'hydro';
	'hydro';
	'hydro';
	'hydro';
	'hydro';
	'hydro';
	'hydro';
	'nuclear';
	'ng';
	'nuclear';
	'hydro';
	'hydro';
	'wind';
	'wind';
	'ng';
	'unknown';
	'ng';
	'unknown';
	'ng';
	'ng';
	'ng';
	'ng';
	'ng';
	'ng';
	'ng';
	'ng';
	'ng';
	'ng';
	'ng';
	'ng';
	'ng';
	'ng';
	'wind';
	'hydro';
	'hydro';
	'hydro';
	'refuse';
	'wind';
	'refuse';
	'wind';
	'hydro';
	'hydro';
	'unknown';
	'hydro';
	'hydro';
	'hydro';
	'hydro';
	'hydro';
	'unknown';
	'unknown';
	'unknown';
	'unknown';
	'unknown';
	'unknown';
	'unknown';
	'ng';
	'nuclear';
	'hydro';
	'hydro';
	'coal';
	'hydro';
	'hydro';
	'coal';
	'ng';
	'ng';
	'biomass';
	'biomass';
	'hydro';
	'hydro';
	'hydro';
	'hydro';
	'ng';
};

%% bus names
mpc.bus_name = {
	'Upstate NY';
	'Downstate NY';
};
